** written by FreeCAD inp file writer for CalculiX,Abaqus meshes
** highest dimension mesh elements only.

** Nodes
*Node, NSET=Nall
1, 0, 10, 100
2, 0, 10, 0
3, 10, 10, 100
4, 10, 10, 0
5, 10, 0, 100
6, 10, 0, 0
7, 0, 0, 100
8, 0, 0, 0
9, 0, 10, 10.6
10, 0, 10, 21.3
11, 0, 10, 32.8
12, 0, 10, 43.9
13, 0, 10, 55.7
14, 0, 10, 66.9
15, 0, 10, 78.1
16, 0, 10, 89.3
17, 0, 0, 11.2
18, 0, 0, 22.3
19, 0, 0, 33.4
20, 0, 0, 44.5
** ... 159 like lines cut


** Volume elements
*Element, TYPE=C3D10, ELSET=Evolumes
121, 34, 18, 11, 10, 142, 92, 156, 157, 91, 52
122, 32, 40, 15, 31, 137, 158, 119, 75, 136, 118
123, 40, 32, 15, 16, 137, 119, 158, 159, 121, 57
124, 14, 31, 15, 39, 117, 118, 56, 160, 135, 161
125, 10, 34, 33, 26, 157, 78, 162, 108, 125, 124
126, 2, 25, 9, 6, 105, 106, 50, 87, 122, 163
127, 6, 8, 9, 2, 46, 88, 163, 87, 49, 50
128, 39, 30, 22, 14, 134, 164, 149, 160, 116, 98
129, 10, 33, 17, 9, 162, 140, 90, 51, 165, 89
130, 24, 40, 23, 15, 152, 151, 66, 101, 158, 100
131, 14, 31, 39, 30, 117, 135, 160, 116, 74, 134
132, 35, 34, 19, 11, 79, 143, 154, 166, 156, 93
133, 22, 38, 37, 29, 155, 82, 148, 167, 132, 131
134, 27, 10, 26, 34, 109, 108, 70, 126, 157, 125
135, 26, 33, 9, 25, 124, 165, 107, 69, 123, 106
136, 2, 25, 6, 4, 105, 122, 87, 48, 68, 47
137, 39, 14, 23, 15, 160, 99, 150, 161, 56, 100
138, 30, 38, 22, 29, 133, 155, 164, 73, 132, 167
139, 20, 29, 21, 36, 168, 169, 63, 145, 130, 146
140, 39, 40, 15, 23, 84, 158, 161, 150, 151, 100
** ... 40 like lines cut

** Define element set Eall
*ELSET, ELSET=Eall
Evolumes



***********************************************************
** Element sets for materials and FEM element type (solid, shell, beam, fluid)
*ELSET,ELSET=MaterialSolidSolid
Evolumes

***********************************************************
** constraints displacement node sets
** ConstraintDisplacement
*NSET,NSET=ConstraintDisplacement
2,
4,
6,
8,
46,
47,
48,
49,
87,
** ConstraintDisplacement001
*NSET,NSET=ConstraintDisplacement001
6,
8,
46,
** ConstraintDisplacement002
*NSET,NSET=ConstraintDisplacement002
8,

** Physical constants for SI(mm) unit system with Kelvins
*PHYSICAL CONSTANTS, ABSOLUTE ZERO=0, STEFAN BOLTZMANN=5.670374419e-11

***********************************************************
** Materials
** see information about units at file end
** FreeCAD material name: CalculiX-Steel
** MaterialSolid
*MATERIAL, NAME=MaterialSolid
*ELASTIC
210000,0.3

***********************************************************
** Sections
*SOLID SECTION, ELSET=MaterialSolidSolid, MATERIAL=MaterialSolid

***********************************************************
** At least one step is needed to run an CalculiX analysis of FreeCAD
*STEP, NLGEOM, INC=2000
*STATIC, SOLVER=SPOOLES


***********************************************************
** Displacement constraint applied
** ConstraintDisplacement
*BOUNDARY
ConstraintDisplacement,3,3,0.0
** ConstraintDisplacement001
*BOUNDARY
ConstraintDisplacement001,2,2,0.0
** ConstraintDisplacement002
*BOUNDARY
ConstraintDisplacement002,1,1,0.0


***********************************************************
** constraints force node loads
*CLOAD
** ConstraintForce
** node loads on shape: Pad:Edge10
1,2,-333.3333333333
3,2,-333.3333333333
44,2,-1333.333333333



***********************************************************
** Outputs --> frd file
*NODE FILE
U
*EL FILE
S, E
** outputs --> dat file
** reaction forces for Constraint displacement constraining translation
*NODE PRINT, NSET=ConstraintDisplacement, TOTALS=ONLY
RF
*NODE PRINT, NSET=ConstraintDisplacement001, TOTALS=ONLY
RF
*NODE PRINT, NSET=ConstraintDisplacement002, TOTALS=ONLY
RF

*OUTPUT, FREQUENCY=1
***********************************************************
*END STEP

***********************************************************
** CalculiX Input file
**   written by    --> FreeCAD 1.0.2
**   written on    --> Wed Feb 18 14:13:49 2026
**   file name     --> A111_10x10.FCStd
**   analysis name --> Analysis
**
**
***********************************************************
**  About units:
**  See ccx manual, ccx does not know about any unit.
**  Golden rule: The user must make sure that the numbers they provide have consistent units.
**  The user is the FreeCAD calculix writer module ;-)
**
**  The unit system which is used at Guido Dhondt's company: mm, N, s, K
**  Since Length and Mass are connected by Force, if Length is mm the Mass is in t to get N
**  The following units are used to write to inp file:
**
**  Length: mm (this includes the mesh geometry)
**  Mass: t
**  TimeSpan: s
**  Temperature: K
**
**  This leads to:
**  Force: N
**  Pressure: N/mm^2 == MPa (Young's Modulus has unit Pressure)
**  Density: t/mm^3
**  Gravity: mm/s^2
**  Thermal conductivity: t*mm/K/s^3 == as W/m/K == kW/mm/K
**  Specific Heat: mm^2/s^2/K = J/kg/K == kJ/t/K
**
