** written by FreeCAD inp file writer for CalculiX,Abaqus meshes
** highest dimension mesh elements only.

** Nodes
*Node, NSET=Nall
1, 0, 10, 100
2, 0, 10, 0
3, 10, 10, 100
4, 10, 10, 0
5, 10, 0, 100
6, 10, 0, 0
7, 0, 0, 100
8, 0, 0, 0
9, 4.83, 0, 100
10, 10, 4.86, 100
11, 4.82, 10, 100
12, 0, 5.08, 100
13, 4.83, 0, 0
14, 10, 4.86, 0
15, 4.82, 10, 0
16, 0, 5.08, 0
17, 0, 10, 5.7
18, 0, 10, 14
19, 0, 10, 24
20, 0, 10, 34.3
** ... 262 like lines cut


** Volume elements
*Element, TYPE=C3D10, ELSET=Evolumes
173, 45, 35, 54, 55, 231, 222, 199, 200, 227, 120
174, 62, 61, 54, 34, 232, 233, 235, 236, 234, 221
175, 14, 15, 58, 37, 133, 135, 137, 207, 183, 237
176, 45, 24, 35, 25, 176, 152, 231, 177, 87, 153
177, 42, 32, 22, 41, 238, 159, 171, 106, 239, 170
178, 14, 6, 47, 13, 73, 112, 203, 132, 72, 226
179, 25, 36, 35, 56, 154, 99, 153, 240, 224, 223
180, 14, 58, 47, 37, 137, 241, 203, 207, 237, 185
181, 5, 10, 56, 9, 65, 206, 122, 64, 124, 228
182, 26, 56, 36, 25, 242, 224, 155, 88, 240, 154
183, 45, 54, 35, 62, 199, 222, 231, 243, 235, 244
184, 29, 19, 20, 49, 142, 82, 143, 211, 245, 246
185, 52, 53, 43, 33, 118, 196, 195, 218, 219, 247
186, 32, 31, 22, 41, 95, 147, 159, 239, 248, 170
187, 45, 46, 25, 56, 110, 178, 177, 201, 202, 240
188, 26, 56, 57, 36, 242, 249, 250, 155, 224, 251
189, 50, 29, 30, 20, 212, 93, 213, 252, 143, 144
190, 26, 56, 46, 57, 242, 202, 181, 250, 249, 253
191, 26, 56, 25, 46, 242, 240, 88, 181, 202, 178
192, 34, 24, 35, 62, 151, 152, 98, 236, 254, 244
** ... 83 like lines cut

** Define element set Eall
*ELSET, ELSET=Eall
Evolumes



***********************************************************
** Element sets for materials and FEM element type (solid, shell, beam, fluid)
*ELSET,ELSET=MaterialSolidSolid
Evolumes

***********************************************************
** constraints displacement node sets
** ConstraintDisplacement
*NSET,NSET=ConstraintDisplacement
2,
4,
6,
8,
13,
14,
15,
16,
58,
71,
72,
73,
74,
75,
76,
77,
78,
131,
132,
133,
** ... 5 like lines cut
** ConstraintDisplacement001
*NSET,NSET=ConstraintDisplacement001
2,
4,
6,
8,
13,
14,
15,
16,
58,
71,
72,
73,
74,
75,
76,
77,
78,
131,
132,
133,
** ... 5 like lines cut

** Physical constants for SI(mm) unit system with Kelvins
*PHYSICAL CONSTANTS, ABSOLUTE ZERO=0, STEFAN BOLTZMANN=5.670374419e-11

***********************************************************
** Materials
** see information about units at file end
** FreeCAD material name: CalculiX-Steel
** MaterialSolid
*MATERIAL, NAME=MaterialSolid
*ELASTIC
210000,0.3

***********************************************************
** Sections
*SOLID SECTION, ELSET=MaterialSolidSolid, MATERIAL=MaterialSolid

***********************************************************
** At least one step is needed to run an CalculiX analysis of FreeCAD
*STEP, NLGEOM, INC=2000
*STATIC, SOLVER=SPOOLES


***********************************************************
** Displacement constraint applied
** ConstraintDisplacement
*BOUNDARY
ConstraintDisplacement,3,3,0.0
** ConstraintDisplacement001
*BOUNDARY
ConstraintDisplacement001,1,1,0.0
ConstraintDisplacement001,2,2,0.0


***********************************************************
** constraints force node loads
*CLOAD
** ConstraintForce
** node loads on shape: Pad:Edge10
1,2,-80.33333333333
3,2,-86.33333333333
11,2,-166.6666666667
67,2,-345.3333333333
68,2,-321.3333333333



***********************************************************
** Outputs --> frd file
*NODE FILE
U
*EL FILE
S, E
** outputs --> dat file
** reaction forces for Constraint displacement constraining translation
*NODE PRINT, NSET=ConstraintDisplacement, TOTALS=ONLY
RF
*NODE PRINT, NSET=ConstraintDisplacement001, TOTALS=ONLY
RF

*OUTPUT, FREQUENCY=1
***********************************************************
*END STEP

***********************************************************
** CalculiX Input file
**   written by    --> FreeCAD 1.1.0
**   written on    --> Tue Feb 17 16:37:15 2026
**   file name     --> A111.FCStd
**   analysis name --> Analysis
**
**
***********************************************************
**  About units:
**  See ccx manual, ccx does not know about any unit.
**  Golden rule: The user must make sure that the numbers they provide have consistent units.
**  The user is the FreeCAD calculix writer module ;-)
**
**  The unit system which is used at Guido Dhondt's company: mm, N, s, K
**  Since Length and Mass are connected by Force, if Length is mm the Mass is in t to get N
**  The following units are used to write to inp file:
**
**  Length: mm (this includes the mesh geometry)
**  Mass: t
**  TimeSpan: s
**  Temperature: K
**
**  This leads to:
**  Force: N
**  Pressure: N/mm^2 == MPa (Young's Modulus has unit Pressure)
**  Density: t/mm^3
**  Gravity: mm/s^2
**  Thermal conductivity: t*mm/K/s^3 == as W/m/K == kW/mm/K
**  Specific Heat: mm^2/s^2/K = J/kg/K == kJ/t/K
**
