** written by FreeCAD inp file writer for CalculiX,Abaqus meshes
** highest dimension mesh elements only.

** Nodes
*Node, NSET=Nall
1, 0, 5, 100
2, 0, 5, 0
3, 5, 5, 100
4, 5, 5, 0
5, 5, 0, 100
6, 5, 0, 0
7, 0, 0, 100
8, 0, 0, 0
9, 0, 5, 5
10, 0, 5, 10
11, 0, 5, 15
12, 0, 5, 20.6
13, 0, 5, 25.8
14, 0, 5, 31.3
15, 0, 5, 36.5
16, 0, 5, 41.8
17, 0, 5, 47
18, 0, 5, 52.5
19, 0, 5, 57.7
20, 0, 5, 63.4
** ... 318 like lines cut


** Volume elements
*Element, TYPE=C3D10, ELSET=Evolumes
232, 8, 43, 2, 9, 303, 196, 85, 161, 197, 86
233, 8, 43, 6, 2, 303, 233, 82, 85, 196, 160
234, 43, 27, 9, 8, 304, 162, 197, 303, 105, 161
235, 22, 56, 57, 39, 223, 136, 224, 187, 305, 306
236, 23, 57, 58, 40, 225, 137, 226, 189, 307, 308
237, 74, 56, 73, 39, 260, 259, 154, 295, 305, 294
238, 13, 48, 14, 31, 206, 207, 91, 170, 309, 171
239, 15, 32, 14, 66, 173, 172, 92, 310, 280, 311
240, 8, 43, 61, 6, 303, 234, 269, 82, 233, 141
241, 69, 17, 18, 52, 312, 95, 313, 251, 214, 215
242, 43, 27, 44, 9, 304, 314, 123, 197, 162, 198
243, 20, 72, 54, 55, 315, 256, 219, 220, 257, 134
244, 20, 72, 21, 37, 315, 316, 98, 183, 291, 184
245, 23, 22, 57, 39, 100, 224, 225, 188, 187, 306
246, 63, 11, 46, 45, 317, 202, 239, 238, 201, 125
247, 63, 11, 29, 46, 317, 166, 274, 239, 202, 318
248, 62, 28, 10, 27, 272, 164, 319, 271, 106, 163
249, 63, 11, 28, 29, 317, 165, 273, 274, 166, 107
250, 63, 11, 45, 28, 317, 201, 238, 273, 165, 320
251, 21, 72, 73, 38, 316, 153, 321, 185, 292, 293
** ... 90 like lines cut

** Define element set Eall
*ELSET, ELSET=Eall
Evolumes



***********************************************************
** Element sets for materials and FEM element type (solid, shell, beam, fluid)
*ELSET,ELSET=MaterialSolidSolid
Evolumes

***********************************************************
** constraints displacement node sets
** ConstraintDisplacement
*NSET,NSET=ConstraintDisplacement
2,
4,
6,
8,
82,
83,
84,
85,
160,
** ConstraintDisplacement001
*NSET,NSET=ConstraintDisplacement001
2,
4,
6,
8,
82,
83,
84,
85,
160,

** Physical constants for SI(mm) unit system with Kelvins
*PHYSICAL CONSTANTS, ABSOLUTE ZERO=0, STEFAN BOLTZMANN=5.670374419e-11

***********************************************************
** Materials
** see information about units at file end
** FreeCAD material name: CalculiX-Steel
** MaterialSolid
*MATERIAL, NAME=MaterialSolid
*ELASTIC
210000,0.3

***********************************************************
** Sections
*SOLID SECTION, ELSET=MaterialSolidSolid, MATERIAL=MaterialSolid

***********************************************************
** At least one step is needed to run an CalculiX analysis of FreeCAD
*STEP, NLGEOM, INC=2000
*STATIC, SOLVER=SPOOLES


***********************************************************
** Displacement constraint applied
** ConstraintDisplacement
*BOUNDARY
ConstraintDisplacement,3,3,0.0
** ConstraintDisplacement001
*BOUNDARY
ConstraintDisplacement001,1,1,0.0
ConstraintDisplacement001,2,2,0.0


***********************************************************
** constraints force node loads
*CLOAD
** ConstraintForce
** node loads on shape: Pad:Edge10
1,2,-333.3333333333
3,2,-333.3333333333
80,2,-1333.333333333



***********************************************************
** Outputs --> frd file
*NODE FILE
U
*EL FILE
S, E
** outputs --> dat file
** reaction forces for Constraint displacement constraining translation
*NODE PRINT, NSET=ConstraintDisplacement, TOTALS=ONLY
RF
*NODE PRINT, NSET=ConstraintDisplacement001, TOTALS=ONLY
RF

*OUTPUT, FREQUENCY=1
***********************************************************
*END STEP

***********************************************************
** CalculiX Input file
**   written by    --> FreeCAD 1.1.0
**   written on    --> Tue Feb 17 17:57:22 2026
**   file name     --> A111.FCStd
**   analysis name --> Analysis
**
**
***********************************************************
**  About units:
**  See ccx manual, ccx does not know about any unit.
**  Golden rule: The user must make sure that the numbers they provide have consistent units.
**  The user is the FreeCAD calculix writer module ;-)
**
**  The unit system which is used at Guido Dhondt's company: mm, N, s, K
**  Since Length and Mass are connected by Force, if Length is mm the Mass is in t to get N
**  The following units are used to write to inp file:
**
**  Length: mm (this includes the mesh geometry)
**  Mass: t
**  TimeSpan: s
**  Temperature: K
**
**  This leads to:
**  Force: N
**  Pressure: N/mm^2 == MPa (Young's Modulus has unit Pressure)
**  Density: t/mm^3
**  Gravity: mm/s^2
**  Thermal conductivity: t*mm/K/s^3 == as W/m/K == kW/mm/K
**  Specific Heat: mm^2/s^2/K = J/kg/K == kJ/t/K
**
